*SPEF "ieee 1481-1999"
*DESIGN "sample_team_proj_Wrapper"
*DATE "17:53:31 Tuesday July 02, 2024"
*VENDOR "The OpenROAD Project"
*PROGRAM "OpenROAD"
*VERSION "d423155d69de7f683a23f6916ead418a615ad4ad"
*DESIGN_FLOW "NAME_SCOPE LOCAL" "PIN_CAP NONE"
*DIVIDER /
*DELIMITER :
*BUS_DELIMITER []
*T_UNIT 1 NS
*C_UNIT 1 PF
*R_UNIT 1 OHM
*L_UNIT 1 HENRY

*NAME_MAP
*1 gpio_in[0]
*2 gpio_in[10]
*3 gpio_in[11]
*4 gpio_in[12]
*5 gpio_in[13]
*6 gpio_in[14]
*7 gpio_in[15]
*8 gpio_in[16]
*9 gpio_in[17]
*10 gpio_in[18]
*11 gpio_in[19]
*12 gpio_in[1]
*13 gpio_in[20]
*14 gpio_in[21]
*15 gpio_in[22]
*16 gpio_in[23]
*17 gpio_in[24]
*18 gpio_in[25]
*19 gpio_in[26]
*20 gpio_in[27]
*21 gpio_in[28]
*22 gpio_in[29]
*23 gpio_in[2]
*24 gpio_in[30]
*25 gpio_in[31]
*26 gpio_in[32]
*27 gpio_in[33]
*28 gpio_in[34]
*29 gpio_in[35]
*30 gpio_in[36]
*31 gpio_in[37]
*32 gpio_in[3]
*33 gpio_in[4]
*34 gpio_in[5]
*35 gpio_in[6]
*36 gpio_in[7]
*37 gpio_in[8]
*38 gpio_in[9]
*39 gpio_oeb[0]
*40 gpio_oeb[10]
*41 gpio_oeb[11]
*42 gpio_oeb[12]
*43 gpio_oeb[13]
*44 gpio_oeb[14]
*45 gpio_oeb[15]
*46 gpio_oeb[16]
*47 gpio_oeb[17]
*48 gpio_oeb[18]
*49 gpio_oeb[19]
*50 gpio_oeb[1]
*51 gpio_oeb[20]
*52 gpio_oeb[21]
*53 gpio_oeb[22]
*54 gpio_oeb[23]
*55 gpio_oeb[24]
*56 gpio_oeb[25]
*57 gpio_oeb[26]
*58 gpio_oeb[27]
*59 gpio_oeb[28]
*60 gpio_oeb[29]
*61 gpio_oeb[2]
*62 gpio_oeb[30]
*63 gpio_oeb[31]
*64 gpio_oeb[32]
*65 gpio_oeb[33]
*66 gpio_oeb[34]
*67 gpio_oeb[35]
*68 gpio_oeb[36]
*69 gpio_oeb[37]
*70 gpio_oeb[3]
*71 gpio_oeb[4]
*72 gpio_oeb[5]
*73 gpio_oeb[6]
*74 gpio_oeb[7]
*75 gpio_oeb[8]
*76 gpio_oeb[9]
*77 gpio_out[0]
*78 gpio_out[10]
*79 gpio_out[11]
*80 gpio_out[12]
*81 gpio_out[13]
*82 gpio_out[14]
*83 gpio_out[15]
*84 gpio_out[16]
*85 gpio_out[17]
*86 gpio_out[18]
*87 gpio_out[19]
*88 gpio_out[1]
*89 gpio_out[20]
*90 gpio_out[21]
*91 gpio_out[22]
*92 gpio_out[23]
*93 gpio_out[24]
*94 gpio_out[25]
*95 gpio_out[26]
*96 gpio_out[27]
*97 gpio_out[28]
*98 gpio_out[29]
*99 gpio_out[2]
*100 gpio_out[30]
*101 gpio_out[31]
*102 gpio_out[32]
*103 gpio_out[33]
*104 gpio_out[34]
*105 gpio_out[35]
*106 gpio_out[36]
*107 gpio_out[37]
*108 gpio_out[3]
*109 gpio_out[4]
*110 gpio_out[5]
*111 gpio_out[6]
*112 gpio_out[7]
*113 gpio_out[8]
*114 gpio_out[9]
*115 irq[0]
*116 irq[1]
*117 irq[2]
*118 la_data_in[0]
*119 la_data_in[100]
*120 la_data_in[101]
*121 la_data_in[102]
*122 la_data_in[103]
*123 la_data_in[104]
*124 la_data_in[105]
*125 la_data_in[106]
*126 la_data_in[107]
*127 la_data_in[108]
*128 la_data_in[109]
*129 la_data_in[10]
*130 la_data_in[110]
*131 la_data_in[111]
*132 la_data_in[112]
*133 la_data_in[113]
*134 la_data_in[114]
*135 la_data_in[115]
*136 la_data_in[116]
*137 la_data_in[117]
*138 la_data_in[118]
*139 la_data_in[119]
*140 la_data_in[11]
*141 la_data_in[120]
*142 la_data_in[121]
*143 la_data_in[122]
*144 la_data_in[123]
*145 la_data_in[124]
*146 la_data_in[125]
*147 la_data_in[126]
*148 la_data_in[127]
*149 la_data_in[12]
*150 la_data_in[13]
*151 la_data_in[14]
*152 la_data_in[15]
*153 la_data_in[16]
*154 la_data_in[17]
*155 la_data_in[18]
*156 la_data_in[19]
*157 la_data_in[1]
*158 la_data_in[20]
*159 la_data_in[21]
*160 la_data_in[22]
*161 la_data_in[23]
*162 la_data_in[24]
*163 la_data_in[25]
*164 la_data_in[26]
*165 la_data_in[27]
*166 la_data_in[28]
*167 la_data_in[29]
*168 la_data_in[2]
*169 la_data_in[30]
*170 la_data_in[31]
*171 la_data_in[32]
*172 la_data_in[33]
*173 la_data_in[34]
*174 la_data_in[35]
*175 la_data_in[36]
*176 la_data_in[37]
*177 la_data_in[38]
*178 la_data_in[39]
*179 la_data_in[3]
*180 la_data_in[40]
*181 la_data_in[41]
*182 la_data_in[42]
*183 la_data_in[43]
*184 la_data_in[44]
*185 la_data_in[45]
*186 la_data_in[46]
*187 la_data_in[47]
*188 la_data_in[48]
*189 la_data_in[49]
*190 la_data_in[4]
*191 la_data_in[50]
*192 la_data_in[51]
*193 la_data_in[52]
*194 la_data_in[53]
*195 la_data_in[54]
*196 la_data_in[55]
*197 la_data_in[56]
*198 la_data_in[57]
*199 la_data_in[58]
*200 la_data_in[59]
*201 la_data_in[5]
*202 la_data_in[60]
*203 la_data_in[61]
*204 la_data_in[62]
*205 la_data_in[63]
*206 la_data_in[64]
*207 la_data_in[65]
*208 la_data_in[66]
*209 la_data_in[67]
*210 la_data_in[68]
*211 la_data_in[69]
*212 la_data_in[6]
*213 la_data_in[70]
*214 la_data_in[71]
*215 la_data_in[72]
*216 la_data_in[73]
*217 la_data_in[74]
*218 la_data_in[75]
*219 la_data_in[76]
*220 la_data_in[77]
*221 la_data_in[78]
*222 la_data_in[79]
*223 la_data_in[7]
*224 la_data_in[80]
*225 la_data_in[81]
*226 la_data_in[82]
*227 la_data_in[83]
*228 la_data_in[84]
*229 la_data_in[85]
*230 la_data_in[86]
*231 la_data_in[87]
*232 la_data_in[88]
*233 la_data_in[89]
*234 la_data_in[8]
*235 la_data_in[90]
*236 la_data_in[91]
*237 la_data_in[92]
*238 la_data_in[93]
*239 la_data_in[94]
*240 la_data_in[95]
*241 la_data_in[96]
*242 la_data_in[97]
*243 la_data_in[98]
*244 la_data_in[99]
*245 la_data_in[9]
*246 la_data_out[0]
*247 la_data_out[100]
*248 la_data_out[101]
*249 la_data_out[102]
*250 la_data_out[103]
*251 la_data_out[104]
*252 la_data_out[105]
*253 la_data_out[106]
*254 la_data_out[107]
*255 la_data_out[108]
*256 la_data_out[109]
*257 la_data_out[10]
*258 la_data_out[110]
*259 la_data_out[111]
*260 la_data_out[112]
*261 la_data_out[113]
*262 la_data_out[114]
*263 la_data_out[115]
*264 la_data_out[116]
*265 la_data_out[117]
*266 la_data_out[118]
*267 la_data_out[119]
*268 la_data_out[11]
*269 la_data_out[120]
*270 la_data_out[121]
*271 la_data_out[122]
*272 la_data_out[123]
*273 la_data_out[124]
*274 la_data_out[125]
*275 la_data_out[126]
*276 la_data_out[127]
*277 la_data_out[12]
*278 la_data_out[13]
*279 la_data_out[14]
*280 la_data_out[15]
*281 la_data_out[16]
*282 la_data_out[17]
*283 la_data_out[18]
*284 la_data_out[19]
*285 la_data_out[1]
*286 la_data_out[20]
*287 la_data_out[21]
*288 la_data_out[22]
*289 la_data_out[23]
*290 la_data_out[24]
*291 la_data_out[25]
*292 la_data_out[26]
*293 la_data_out[27]
*294 la_data_out[28]
*295 la_data_out[29]
*296 la_data_out[2]
*297 la_data_out[30]
*298 la_data_out[31]
*299 la_data_out[32]
*300 la_data_out[33]
*301 la_data_out[34]
*302 la_data_out[35]
*303 la_data_out[36]
*304 la_data_out[37]
*305 la_data_out[38]
*306 la_data_out[39]
*307 la_data_out[3]
*308 la_data_out[40]
*309 la_data_out[41]
*310 la_data_out[42]
*311 la_data_out[43]
*312 la_data_out[44]
*313 la_data_out[45]
*314 la_data_out[46]
*315 la_data_out[47]
*316 la_data_out[48]
*317 la_data_out[49]
*318 la_data_out[4]
*319 la_data_out[50]
*320 la_data_out[51]
*321 la_data_out[52]
*322 la_data_out[53]
*323 la_data_out[54]
*324 la_data_out[55]
*325 la_data_out[56]
*326 la_data_out[57]
*327 la_data_out[58]
*328 la_data_out[59]
*329 la_data_out[5]
*330 la_data_out[60]
*331 la_data_out[61]
*332 la_data_out[62]
*333 la_data_out[63]
*334 la_data_out[64]
*335 la_data_out[65]
*336 la_data_out[66]
*337 la_data_out[67]
*338 la_data_out[68]
*339 la_data_out[69]
*340 la_data_out[6]
*341 la_data_out[70]
*342 la_data_out[71]
*343 la_data_out[72]
*344 la_data_out[73]
*345 la_data_out[74]
*346 la_data_out[75]
*347 la_data_out[76]
*348 la_data_out[77]
*349 la_data_out[78]
*350 la_data_out[79]
*351 la_data_out[7]
*352 la_data_out[80]
*353 la_data_out[81]
*354 la_data_out[82]
*355 la_data_out[83]
*356 la_data_out[84]
*357 la_data_out[85]
*358 la_data_out[86]
*359 la_data_out[87]
*360 la_data_out[88]
*361 la_data_out[89]
*362 la_data_out[8]
*363 la_data_out[90]
*364 la_data_out[91]
*365 la_data_out[92]
*366 la_data_out[93]
*367 la_data_out[94]
*368 la_data_out[95]
*369 la_data_out[96]
*370 la_data_out[97]
*371 la_data_out[98]
*372 la_data_out[99]
*373 la_data_out[9]
*374 la_oenb[0]
*375 la_oenb[100]
*376 la_oenb[101]
*377 la_oenb[102]
*378 la_oenb[103]
*379 la_oenb[104]
*380 la_oenb[105]
*381 la_oenb[106]
*382 la_oenb[107]
*383 la_oenb[108]
*384 la_oenb[109]
*385 la_oenb[10]
*386 la_oenb[110]
*387 la_oenb[111]
*388 la_oenb[112]
*389 la_oenb[113]
*390 la_oenb[114]
*391 la_oenb[115]
*392 la_oenb[116]
*393 la_oenb[117]
*394 la_oenb[118]
*395 la_oenb[119]
*396 la_oenb[11]
*397 la_oenb[120]
*398 la_oenb[121]
*399 la_oenb[122]
*400 la_oenb[123]
*401 la_oenb[124]
*402 la_oenb[125]
*403 la_oenb[126]
*404 la_oenb[127]
*405 la_oenb[12]
*406 la_oenb[13]
*407 la_oenb[14]
*408 la_oenb[15]
*409 la_oenb[16]
*410 la_oenb[17]
*411 la_oenb[18]
*412 la_oenb[19]
*413 la_oenb[1]
*414 la_oenb[20]
*415 la_oenb[21]
*416 la_oenb[22]
*417 la_oenb[23]
*418 la_oenb[24]
*419 la_oenb[25]
*420 la_oenb[26]
*421 la_oenb[27]
*422 la_oenb[28]
*423 la_oenb[29]
*424 la_oenb[2]
*425 la_oenb[30]
*426 la_oenb[31]
*427 la_oenb[32]
*428 la_oenb[33]
*429 la_oenb[34]
*430 la_oenb[35]
*431 la_oenb[36]
*432 la_oenb[37]
*433 la_oenb[38]
*434 la_oenb[39]
*435 la_oenb[3]
*436 la_oenb[40]
*437 la_oenb[41]
*438 la_oenb[42]
*439 la_oenb[43]
*440 la_oenb[44]
*441 la_oenb[45]
*442 la_oenb[46]
*443 la_oenb[47]
*444 la_oenb[48]
*445 la_oenb[49]
*446 la_oenb[4]
*447 la_oenb[50]
*448 la_oenb[51]
*449 la_oenb[52]
*450 la_oenb[53]
*451 la_oenb[54]
*452 la_oenb[55]
*453 la_oenb[56]
*454 la_oenb[57]
*455 la_oenb[58]
*456 la_oenb[59]
*457 la_oenb[5]
*458 la_oenb[60]
*459 la_oenb[61]
*460 la_oenb[62]
*461 la_oenb[63]
*462 la_oenb[64]
*463 la_oenb[65]
*464 la_oenb[66]
*465 la_oenb[67]
*466 la_oenb[68]
*467 la_oenb[69]
*468 la_oenb[6]
*469 la_oenb[70]
*470 la_oenb[71]
*471 la_oenb[72]
*472 la_oenb[73]
*473 la_oenb[74]
*474 la_oenb[75]
*475 la_oenb[76]
*476 la_oenb[77]
*477 la_oenb[78]
*478 la_oenb[79]
*479 la_oenb[7]
*480 la_oenb[80]
*481 la_oenb[81]
*482 la_oenb[82]
*483 la_oenb[83]
*484 la_oenb[84]
*485 la_oenb[85]
*486 la_oenb[86]
*487 la_oenb[87]
*488 la_oenb[88]
*489 la_oenb[89]
*490 la_oenb[8]
*491 la_oenb[90]
*492 la_oenb[91]
*493 la_oenb[92]
*494 la_oenb[93]
*495 la_oenb[94]
*496 la_oenb[95]
*497 la_oenb[96]
*498 la_oenb[97]
*499 la_oenb[98]
*500 la_oenb[99]
*501 la_oenb[9]
*504 wb_clk_i
*505 wb_rst_i
*506 wbs_ack_o
*507 wbs_adr_i[0]
*508 wbs_adr_i[10]
*509 wbs_adr_i[11]
*510 wbs_adr_i[12]
*511 wbs_adr_i[13]
*512 wbs_adr_i[14]
*513 wbs_adr_i[15]
*514 wbs_adr_i[16]
*515 wbs_adr_i[17]
*516 wbs_adr_i[18]
*517 wbs_adr_i[19]
*518 wbs_adr_i[1]
*519 wbs_adr_i[20]
*520 wbs_adr_i[21]
*521 wbs_adr_i[22]
*522 wbs_adr_i[23]
*523 wbs_adr_i[24]
*524 wbs_adr_i[25]
*525 wbs_adr_i[26]
*526 wbs_adr_i[27]
*527 wbs_adr_i[28]
*528 wbs_adr_i[29]
*529 wbs_adr_i[2]
*530 wbs_adr_i[30]
*531 wbs_adr_i[31]
*532 wbs_adr_i[3]
*533 wbs_adr_i[4]
*534 wbs_adr_i[5]
*535 wbs_adr_i[6]
*536 wbs_adr_i[7]
*537 wbs_adr_i[8]
*538 wbs_adr_i[9]
*539 wbs_cyc_i
*540 wbs_dat_i[0]
*541 wbs_dat_i[10]
*542 wbs_dat_i[11]
*543 wbs_dat_i[12]
*544 wbs_dat_i[13]
*545 wbs_dat_i[14]
*546 wbs_dat_i[15]
*547 wbs_dat_i[16]
*548 wbs_dat_i[17]
*549 wbs_dat_i[18]
*550 wbs_dat_i[19]
*551 wbs_dat_i[1]
*552 wbs_dat_i[20]
*553 wbs_dat_i[21]
*554 wbs_dat_i[22]
*555 wbs_dat_i[23]
*556 wbs_dat_i[24]
*557 wbs_dat_i[25]
*558 wbs_dat_i[26]
*559 wbs_dat_i[27]
*560 wbs_dat_i[28]
*561 wbs_dat_i[29]
*562 wbs_dat_i[2]
*563 wbs_dat_i[30]
*564 wbs_dat_i[31]
*565 wbs_dat_i[3]
*566 wbs_dat_i[4]
*567 wbs_dat_i[5]
*568 wbs_dat_i[6]
*569 wbs_dat_i[7]
*570 wbs_dat_i[8]
*571 wbs_dat_i[9]
*572 wbs_dat_o[0]
*573 wbs_dat_o[10]
*574 wbs_dat_o[11]
*575 wbs_dat_o[12]
*576 wbs_dat_o[13]
*577 wbs_dat_o[14]
*578 wbs_dat_o[15]
*579 wbs_dat_o[16]
*580 wbs_dat_o[17]
*581 wbs_dat_o[18]
*582 wbs_dat_o[19]
*583 wbs_dat_o[1]
*584 wbs_dat_o[20]
*585 wbs_dat_o[21]
*586 wbs_dat_o[22]
*587 wbs_dat_o[23]
*588 wbs_dat_o[24]
*589 wbs_dat_o[25]
*590 wbs_dat_o[26]
*591 wbs_dat_o[27]
*592 wbs_dat_o[28]
*593 wbs_dat_o[29]
*594 wbs_dat_o[2]
*595 wbs_dat_o[30]
*596 wbs_dat_o[31]
*597 wbs_dat_o[3]
*598 wbs_dat_o[4]
*599 wbs_dat_o[5]
*600 wbs_dat_o[6]
*601 wbs_dat_o[7]
*602 wbs_dat_o[8]
*603 wbs_dat_o[9]
*604 wbs_sel_i[0]
*605 wbs_sel_i[1]
*606 wbs_sel_i[2]
*607 wbs_sel_i[3]
*608 wbs_stb_i
*609 wbs_we_i
*610 _0000_
*611 _0001_
*612 _0002_
*613 _0003_
*614 _0004_
*615 _0005_
*616 _0006_
*617 _0007_
*618 _0008_
*619 _0009_
*620 _0010_
*621 _0011_
*622 _0012_
*623 _0013_
*624 _0014_
*625 _0015_
*626 _0016_
*627 _0017_
*628 _0018_
*629 _0019_
*630 _0020_
*631 _0021_
*632 _0022_
*633 _0023_
*634 _0024_
*635 _0025_
*636 _0026_
*637 _0027_
*638 _0028_
*639 _0029_
*640 _0030_
*641 _0031_
*642 _0032_
*643 _0033_
*644 _0034_
*645 _0035_
*646 _0036_
*647 _0037_
*648 _0038_
*649 _0039_
*650 _0040_
*651 _0041_
*652 _0042_
*653 _0043_
*654 _0044_
*655 _0045_
*656 _0046_
*657 _0047_
*658 _0048_
*659 _0049_
*660 _0050_
*661 _0051_
*662 _0052_
*663 _0053_
*664 _0054_
*665 _0055_
*666 _0056_
*667 _0057_
*668 _0058_
*669 _0059_
*670 _0060_
*671 _0061_
*672 _0062_
*673 _0063_
*674 _0064_
*675 _0065_
*676 _0066_
*677 _0067_
*678 _0068_
*679 _0069_
*680 _0070_
*681 _0071_
*682 _0072_
*683 _0073_
*684 _0074_
*685 _0075_
*686 _0076_
*687 _0077_
*688 _0078_
*689 _0079_
*690 _0080_
*691 _0081_
*692 _0082_
*693 _0083_
*694 _0084_
*695 _0085_
*696 _0086_
*697 _0087_
*698 _0088_
*699 _0089_
*700 _0090_
*701 _0091_
*702 _0092_
*703 _0093_
*704 _0094_
*705 _0095_
*706 _0096_
*707 _0097_
*708 _0098_
*709 _0099_
*710 _0100_
*711 _0101_
*712 _0102_
*713 _0103_
*714 _0104_
*715 _0105_
*716 _0106_
*717 _0107_
*718 _0108_
*719 _0109_
*720 _0110_
*721 _0111_
*722 _0112_
*723 _0113_
*724 _0114_
*725 _0115_
*726 _0116_
*727 _0117_
*728 _0118_
*729 _0119_
*730 _0120_
*731 _0121_
*732 _0122_
*733 _0123_
*734 _0124_
*735 _0125_
*736 _0126_
*737 _0127_
*738 _0128_
*739 _0129_
*740 _0130_
*741 _0131_
*742 _0132_
*743 _0133_
*744 _0134_
*745 _0135_
*746 _0136_
*747 _0137_
*748 _0138_
*749 _0139_
*750 _0140_
*751 _0141_
*752 _0142_
*753 _0143_
*754 _0144_
*755 _0145_
*756 _0146_
*757 _0147_
*758 _0148_
*759 _0149_
*760 _0150_
*761 _0151_
*762 _0152_
*763 _0153_
*764 _0154_
*765 _0155_
*766 _0156_
*767 _0157_
*768 _0158_
*769 _0159_
*770 _0160_
*771 _0161_
*772 _0162_
*773 _0163_
*774 _0164_
*775 _0165_
*776 _0166_
*777 _0167_
*778 _0168_
*779 _0169_
*780 _0170_
*781 _0171_
*782 _0172_
*783 _0173_
*784 _0174_
*785 _0175_
*786 _0176_
*787 _0177_
*788 _0178_
*789 _0179_
*790 _0180_
*791 _0181_
*792 _0182_
*793 _0183_
*794 _0184_
*795 _0185_
*796 _0186_
*797 _0187_
*798 _0188_
*799 _0189_
*800 _0190_
*801 _0191_
*802 _0192_
*803 _0193_
*804 _0194_
*805 _0195_
*806 _0196_
*807 _0197_
*808 _0198_
*809 _0199_
*810 _0200_
*811 _0201_
*812 _0202_
*813 _0203_
*814 _0204_
*815 _0205_
*816 _0206_
*817 _0207_
*818 _0208_
*819 _0209_
*820 _0210_
*821 _0211_
*822 _0212_
*823 _0213_
*824 _0214_
*825 _0215_
*826 _0216_
*827 _0217_
*828 _0218_
*829 _0219_
*830 _0220_
*831 _0221_
*832 _0222_
*833 _0223_
*834 _0224_
*835 _0225_
*836 _0226_
*837 _0227_
*838 _0228_
*839 _0229_
*840 _0230_
*841 _0231_
*842 _0232_
*843 _0233_
*844 _0234_
*845 _0235_
*846 _0236_
*847 _0237_
*848 _0238_
*849 _0239_
*850 _0240_
*851 _0241_
*852 _0242_
*853 _0243_
*854 _0244_
*855 _0245_
*856 _0246_
*857 _0247_
*858 _0248_
*859 _0249_
*860 _0250_
*861 _0251_
*862 _0252_
*863 _0253_
*864 _0254_
*865 _0255_
*866 _0256_
*867 _0257_
*868 _0258_
*869 _0259_
*870 _0260_
*871 _0261_
*872 _0262_
*873 _0263_
*874 _0264_
*875 _0265_
*876 _0266_
*877 _0267_
*878 _0268_
*879 _0269_
*880 _0270_
*881 _0271_
*882 _0272_
*883 _0273_
*884 _0274_
*885 _0275_
*886 _0276_
*887 _0277_
*888 _0278_
*889 _0279_
*890 _0280_
*891 _0281_
*892 _0282_
*893 _0283_
*894 _0284_
*895 _0285_
*896 _0286_
*897 _0287_
*898 _0288_
*899 _0289_
*900 _0290_
*901 _0291_
*902 _0292_
*903 _0293_
*904 _0294_
*905 _0295_
*906 _0296_
*907 _0297_
*908 _0298_
*909 _0299_
*910 _0300_
*911 _0301_
*912 _0302_
*913 _0303_
*914 _0304_
*915 _0305_
*916 _0306_
*917 _0307_
*918 _0308_
*919 _0309_
*920 _0310_
*921 _0311_
*922 _0312_
*923 _0313_
*924 _0314_
*925 _0315_
*926 _0316_
*927 _0317_
*928 _0318_
*929 _0319_
*930 _0320_
*931 _0321_
*932 _0322_
*933 _0323_
*934 _0324_
*935 _0325_
*936 _0326_
*937 _0327_
*938 _0328_
*939 _0329_
*940 _0330_
*941 _0331_
*942 _0332_
*943 _0333_
*944 _0334_
*945 _0335_
*946 _0336_
*947 _0337_
*948 _0338_
*949 _0339_
*950 _0340_
*951 _0341_
*952 _0342_
*953 _0343_
*954 _0344_
*955 _0345_
*956 _0346_
*957 _0347_
*958 _0348_
*959 _0349_
*960 _0350_
*961 _0351_
*962 _0352_
*963 _0353_
*964 _0354_
*965 _0355_
*966 _0356_
*967 _0357_
*968 _0358_
*969 _0359_
*970 _0360_
*971 _0361_
*972 _0362_
*973 _0363_
*974 _0364_
*975 _0365_
*976 _0366_
*977 _0367_
*978 _0368_
*979 _0369_
*980 _0370_
*981 _0371_
*982 _0372_
*983 _0373_
*984 _0374_
*985 _0375_
*986 _0376_
*987 _0377_
*988 _0378_
*989 _0379_
*990 _0380_
*991 _0381_
*992 _0382_
*993 _0383_
*994 _0384_
*995 _0385_
*996 _0386_
*997 _0387_
*998 _0388_
*999 _0389_
*1000 _0390_
*1001 _0391_
*1002 _0392_
*1003 _0393_
*1004 _0394_
*1005 _0395_
*1006 _0396_
*1007 _0397_
*1008 _0398_
*1009 _0399_
*1010 _0400_
*1011 _0401_
*1012 _0402_
*1013 _0403_
*1014 _0404_
*1015 _0405_
*1016 _0406_
*1017 _0407_
*1018 _0408_
*1019 _0409_
*1020 _0410_
*1021 _0411_
*1022 _0412_
*1023 _0413_
*1024 _0414_
*1025 _0415_
*1026 _0416_
*1027 _0417_
*1028 _0418_
*1029 _0419_
*1030 _0420_
*1031 _0421_
*1032 _0422_
*1033 _0423_
*1034 _0424_
*1035 _0425_
*1036 _0426_
*1037 _0427_
*1038 _0428_
*1039 _0429_
*1040 _0430_
*1041 _0431_
*1042 _0432_
*1043 _0433_
*1044 _0434_
*1045 _0435_
*1046 _0436_
*1047 _0437_
*1048 _0438_
*1049 _0439_
*1050 _0440_
*1051 _0441_
*1052 _0442_
*1053 _0443_
*1054 _0444_
*1055 _0445_
*1056 _0446_
*1057 _0447_
*1058 _0448_
*1059 _0449_
*1060 _0450_
*1061 _0451_
*1062 _0452_
*1063 _0453_
*1064 _0454_
*1065 _0455_
*1066 _0456_
*1067 _0457_
*1068 _0458_
*1069 _0459_
*1070 _0460_
*1071 _0461_
*1072 _0462_
*1073 _0463_
*1074 _0464_
*1075 _0465_
*1076 _0466_
*1077 _0467_
*1078 _0468_
*1079 _0469_
*1080 _0470_
*1081 _0471_
*1082 _0472_
*1083 _0473_
*1084 _0474_
*1085 _0475_
*1086 _0476_
*1087 _0477_
*1088 _0478_
*1089 _0479_
*1090 _0480_
*1091 _0481_
*1092 _0482_
*1093 _0483_
*1094 _0484_
*1095 _0485_
*1096 _0486_
*1097 _0487_
*1098 _0488_
*1099 _0489_
*1100 _0490_
*1101 _0491_
*1102 _0492_
*1103 _0493_
*1104 _0494_
*1105 _0495_
*1106 _0496_
*1107 _0497_
*1108 _0498_
*1109 _0499_
*1110 _0500_
*1111 _0501_
*1112 _0502_
*1113 _0503_
*1114 _0504_
*1115 _0505_
*1116 _0506_
*1117 _0507_
*1118 _0508_
*1119 _0509_
*1120 _0510_
*1121 _0511_
*1122 _0512_
*1123 _0513_
*1124 _0514_
*1125 _0515_
*1126 _0516_
*1127 _0517_
*1128 _0518_
*1129 _0519_
*1130 _0520_
*1131 _0521_
*1132 _0522_
*1133 _0523_
*1134 _0524_
*1135 _0525_
*1136 _0526_
*1137 _0527_
*1138 _0528_
*1139 _0529_
*1140 _0530_
*1141 _0531_
*1142 _0532_
*1143 _0533_
*1144 _0534_
*1145 _0535_
*1146 _0536_
*1147 _0537_
*1148 _0538_
*1149 _0539_
*1150 _0540_
*1151 _0541_
*1152 _0542_
*1153 _0543_
*1154 _0544_
*1155 _0545_
*1156 _0546_
*1157 _0547_
*1158 _0548_
*1159 _0549_
*1160 _0550_
*1161 _0551_
*1162 _0552_
*1163 _0553_
*1164 _0554_
*1165 _0555_
*1166 _0556_
*1167 _0557_
*1168 _0558_
*1169 _0559_
*1170 _0560_
*1171 _0561_
*1172 _0562_
*1173 _0563_
*1174 _0564_
*1175 _0565_
*1176 _0566_
*1177 _0567_
*1178 _0568_
*1179 _0569_
*1180 _0570_
*1181 _0571_
*1182 _0572_
*1183 _0573_
*1184 _0574_
*1185 _0575_
*1186 _0576_
*1187 _0577_
*1188 _0578_
*1189 _0579_
*1190 _0580_
*1191 _0581_
*1192 _0582_
*1193 _0583_
*1194 _0584_
*1195 _0585_
*1196 _0586_
*1197 _0587_
*1198 _0588_
*1199 _0589_
*1200 _0590_
*1201 _0591_
*1202 _0592_
*1203 _0593_
*1204 _0594_
*1205 _0595_
*1206 _0596_
*1207 _0597_
*1208 _0598_
*1209 _0599_
*1210 _0600_
*1211 _0601_
*1212 _0602_
*1213 _0603_
*1214 _0604_
*1215 _0605_
*1216 _0606_
*1217 _0607_
*1218 _0608_
*1219 _0609_
*1220 _0610_
*1221 _0611_
*1222 _0612_
*1223 _0613_
*1224 _0614_
*1225 _0615_
*1226 _0616_
*1227 _0617_
*1228 _0618_
*1229 _0619_
*1230 _0620_
*1231 _0621_
*1232 _0622_
*1233 _0623_
*1234 _0624_
*1235 _0625_
*1236 _0626_
*1237 _0627_
*1238 _0628_
*1239 _0629_
*1240 _0630_
*1241 _0631_
*1242 _0632_
*1243 _0633_
*1244 _0634_
*1245 _0635_
*1246 _0636_
*1247 _0637_
*1248 _0638_
*1249 _0639_
*1250 _0640_
*1251 _0641_
*1252 _0642_
*1253 _0643_
*1254 _0644_
*1255 _0645_
*1256 _0646_
*1257 _0647_
*1258 _0648_
*1259 _0649_
*1260 _0650_
*1261 _0651_
*1262 _0652_
*1263 _0653_
*1264 _0654_
*1265 _0655_
*1266 _0656_
*1267 _0657_
*1268 _0658_
*1269 _0659_
*1270 _0660_
*1271 _0661_
*1272 _0662_
*1273 _0663_
*1274 _0664_
*1275 _0665_
*1276 _0666_
*1277 _0667_
*1278 _0668_
*1279 _0669_
*1280 _0670_
*1281 _0671_
*1282 _0672_
*1283 _0673_
*1284 _0674_
*1285 _0675_
*1286 _0676_
*1287 _0677_
*1288 _0678_
*1289 _0679_
*1290 _0680_
*1291 _0681_
*1292 _0682_
*1293 _0683_
*1294 _0684_
*1295 _0685_
*1296 _0686_
*1297 _0687_
*1298 _0688_
*1299 _0689_
*1300 _0690_
*1301 _0691_
*1302 _0692_
*1303 _0693_
*1304 _0694_
*1305 _0695_
*1306 _0696_
*1307 _0697_
*1308 _0698_
*1309 _0699_
*1310 _0700_
*1311 _0701_
*1312 _0702_
*1313 _0703_
*1314 _0704_
*1315 _0705_
*1316 _0706_
*1317 _0707_
*1318 _0708_
*1319 _0709_
*1320 _0710_
*1321 _0711_
*1322 _0712_
*1323 _0713_
*1324 _0714_
*1325 _0715_
*1326 _0716_
*1327 _0717_
*1328 _0718_
*1329 _0719_
*1330 _0720_
*1331 _0721_
*1332 _0722_
*1333 _0723_
*1334 _0724_
*1335 _0725_
*1336 _0726_
*1337 _0727_
*1338 clknet_0_wb_clk_i
*1339 clknet_2_0__leaf_wb_clk_i
*1340 clknet_2_1__leaf_wb_clk_i
*1341 clknet_2_2__leaf_wb_clk_i
*1342 clknet_2_3__leaf_wb_clk_i
*1343 net1
*1344 net10
*1345 net100
*1346 net101
*1347 net102
*1348 net103
*1349 net104
*1350 net105
*1351 net106
*1352 net107
*1353 net108
*1354 net109
*1355 net11
*1356 net110
*1357 net111
*1358 net112
*1359 net113
*1360 net114
*1361 net115
*1362 net116
*1363 net117
*1364 net118
*1365 net119
*1366 net12
*1367 net120
*1368 net121
*1369 net122
*1370 net123
*1371 net124
*1372 net125
*1373 net126
*1374 net127
*1375 net128
*1376 net129
*1377 net13
*1378 net130
*1379 net131
*1380 net132
*1381 net133
*1382 net134
*1383 net135
*1384 net136
*1385 net137
*1386 net138
*1387 net139
*1388 net14
*1389 net140
*1390 net141
*1391 net142
*1392 net143
*1393 net144
*1394 net145
*1395 net146
*1396 net147
*1397 net148
*1398 net149
*1399 net15
*1400 net150
*1401 net151
*1402 net152
*1403 net153
*1404 net154
*1405 net155
*1406 net156
*1407 net157
*1408 net158
*1409 net159
*1410 net16
*1411 net160
*1412 net161
*1413 net162
*1414 net163
*1415 net164
*1416 net165
*1417 net166
*1418 net167
*1419 net168
*1420 net169
*1421 net17
*1422 net170
*1423 net171
*1424 net172
*1425 net173
*1426 net174
*1427 net175
*1428 net176
*1429 net177
*1430 net178
*1431 net179
*1432 net18
*1433 net180
*1434 net181
*1435 net182
*1436 net183
*1437 net184
*1438 net185
*1439 net186
*1440 net187
*1441 net188
*1442 net189
*1443 net19
*1444 net190
*1445 net191
*1446 net192
*1447 net193
*1448 net194
*1449 net195
*1450 net196
*1451 net197
*1452 net198
*1453 net199
*1454 net2
*1455 net20
*1456 net200
*1457 net201
*1458 net202
*1459 net203
*1460 net204
*1461 net205
*1462 net206
*1463 net207
*1464 net208
*1465 net209
*1466 net21
*1467 net210
*1468 net211
*1469 net212
*1470 net213
*1471 net214
*1472 net215
*1473 net216
*1474 net217
*1475 net218
*1476 net219
*1477 net22
*1478 net220
*1479 net221
*1480 net222
*1481 net223
*1482 net224
*1483 net225
*1484 net226
*1485 net227
*1486 net228
*1487 net229
*1488 net23
*1489 net230
*1490 net231
*1491 net232
*1492 net233
*1493 net234
*1494 net235
*1495 net236
*1496 net237
*1497 net238
*1498 net239
*1499 net24
*1500 net240
*1501 net241
*1502 net242
*1503 net243
*1504 net244
*1505 net245
*1506 net246
*1507 net247
*1508 net248
*1509 net249
*1510 net25
*1511 net250
*1512 net251
*1513 net252
*1514 net253
*1515 net254
*1516 net255
*1517 net256
*1518 net257
*1519 net258
*1520 net259
*1521 net26
*1522 net260
*1523 net261
*1524 net262
*1525 net263
*1526 net264
*1527 net265
*1528 net266
*1529 net267
*1530 net268
*1531 net269
*1532 net27
*1533 net270
*1534 net271
*1535 net272
*1536 net273
*1537 net274
*1538 net275
*1539 net276
*1540 net277
*1541 net278
*1542 net279
*1543 net28
*1544 net280
*1545 net281
*1546 net282
*1547 net283
*1548 net284
*1549 net285
*1550 net286
*1551 net287
*1552 net288
*1553 net289
*1554 net29
*1555 net290
*1556 net291
*1557 net292
*1558 net293
*1559 net294
*1560 net295
*1561 net296
*1562 net297
*1563 net298
*1564 net299
*1565 net3
*1566 net30
*1567 net300
*1568 net301
*1569 net302
*1570 net303
*1571 net304
*1572 net305
*1573 net306
*1574 net307
*1575 net308
*1576 net309
*1577 net31
*1578 net310
*1579 net311
*1580 net312
*1581 net313
*1582 net314
*1583 net315
*1584 net316
*1585 net317
*1586 net318
*1587 net319
*1588 net32
*1589 net320
*1590 net321
*1591 net322
*1592 net323
*1593 net324
*1594 net325
*1595 net326
*1596 net327
*1597 net328
*1598 net329
*1599 net33
*1600 net330
*1601 net331
*1602 net332
*1603 net333
*1604 net334
*1605 net335
*1606 net336
*1607 net337
*1608 net338
*1609 net339
*1610 net34
*1611 net340
*1612 net341
*1613 net342
*1614 net343
*1615 net344
*1616 net345
*1617 net346
*1618 net347
*1619 net348
*1620 net349
*1621 net35
*1622 net350
*1623 net36
*1624 net37
*1625 net38
*1626 net39
*1627 net4
*1628 net40
*1629 net41
*1630 net42
*1631 net43
*1632 net44
*1633 net45
*1634 net46
*1635 net47
*1636 net48
*1637 net49
*1638 net5
*1639 net50
*1640 net51
*1641 net52
*1642 net53
*1643 net54
*1644 net55
*1645 net56
*1646 net57
*1647 net58
*1648 net59
*1649 net6
*1650 net60
*1651 net61
*1652 net62
*1653 net63
*1654 net64
*1655 net65
*1656 net66
*1657 net67
*1658 net68
*1659 net69
*1660 net7
*1661 net70
*1662 net71
*1663 net72
*1664 net73
*1665 net74
*1666 net75
*1667 net76
*1668 net77
*1669 net78
*1670 net79
*1671 net8
*1672 net80
*1673 net81
*1674 net82
*1675 net83
*1676 net84
*1677 net85
*1678 net86
*1679 net87
*1680 net88
*1681 net89
*1682 net9
*1683 net90
*1684 net91
*1685 net92
*1686 net93
*1687 net94
*1688 net95
*1689 net96
*1690 net97
*1691 net98
*1692 net99
*1693 sample_team_proj_WB\.DONE_ASSERT
*1694 sample_team_proj_WB\.EN_VAL_REG
*1695 sample_team_proj_WB\.IC_REG
*1696 sample_team_proj_WB\.IM_REG
*1697 sample_team_proj_WB\.IRQ
*1698 sample_team_proj_WB\.PRESCALER_VAL_REG\[0\]
*1699 sample_team_proj_WB\.PRESCALER_VAL_REG\[10\]
*1700 sample_team_proj_WB\.PRESCALER_VAL_REG\[11\]
*1701 sample_team_proj_WB\.PRESCALER_VAL_REG\[12\]
*1702 sample_team_proj_WB\.PRESCALER_VAL_REG\[13\]
*1703 sample_team_proj_WB\.PRESCALER_VAL_REG\[1\]
*1704 sample_team_proj_WB\.PRESCALER_VAL_REG\[2\]
*1705 sample_team_proj_WB\.PRESCALER_VAL_REG\[3\]
*1706 sample_team_proj_WB\.PRESCALER_VAL_REG\[4\]
*1707 sample_team_proj_WB\.PRESCALER_VAL_REG\[5\]
*1708 sample_team_proj_WB\.PRESCALER_VAL_REG\[6\]
*1709 sample_team_proj_WB\.PRESCALER_VAL_REG\[7\]
*1710 sample_team_proj_WB\.PRESCALER_VAL_REG\[8\]
*1711 sample_team_proj_WB\.PRESCALER_VAL_REG\[9\]
*1712 sample_team_proj_WB\.RIS_REG
*1713 sample_team_proj_WB\.instance_to_wrap\.clk_divider\.count_out\[0\]
*1714 sample_team_proj_WB\.instance_to_wrap\.clk_divider\.count_out\[10\]
*1715 sample_team_proj_WB\.instance_to_wrap\.clk_divider\.count_out\[11\]
*1716 sample_team_proj_WB\.instance_to_wrap\.clk_divider\.count_out\[12\]
*1717 sample_team_proj_WB\.instance_to_wrap\.clk_divider\.count_out\[13\]
*1718 sample_team_proj_WB\.instance_to_wrap\.clk_divider\.count_out\[14\]
*1719 sample_team_proj_WB\.instance_to_wrap\.clk_divider\.count_out\[15\]
*1720 sample_team_proj_WB\.instance_to_wrap\.clk_divider\.count_out\[16\]
*1721 sample_team_proj_WB\.instance_to_wrap\.clk_divider\.count_out\[17\]
*1722 sample_team_proj_WB\.instance_to_wrap\.clk_divider\.count_out\[18\]
*1723 sample_team_proj_WB\.instance_to_wrap\.clk_divider\.count_out\[19\]
*1724 sample_team_proj_WB\.instance_to_wrap\.clk_divider\.count_out\[1\]
*1725 sample_team_proj_WB\.instance_to_wrap\.clk_divider\.count_out\[20\]
*1726 sample_team_proj_WB\.instance_to_wrap\.clk_divider\.count_out\[21\]
*1727 sample_team_proj_WB\.instance_to_wrap\.clk_divider\.count_out\[22\]
*1728 sample_team_proj_WB\.instance_to_wrap\.clk_divider\.count_out\[23\]
*1729 sample_team_proj_WB\.instance_to_wrap\.clk_divider\.count_out\[24\]
*1730 sample_team_proj_WB\.instance_to_wrap\.clk_divider\.count_out\[25\]
*1731 sample_team_proj_WB\.instance_to_wrap\.clk_divider\.count_out\[26\]
*1732 sample_team_proj_WB\.instance_to_wrap\.clk_divider\.count_out\[27\]
*1733 sample_team_proj_WB\.instance_to_wrap\.clk_divider\.count_out\[2\]
*1734 sample_team_proj_WB\.instance_to_wrap\.clk_divider\.count_out\[3\]
*1735 sample_team_proj_WB\.instance_to_wrap\.clk_divider\.count_out\[4\]
*1736 sample_team_proj_WB\.instance_to_wrap\.clk_divider\.count_out\[5\]
*1737 sample_team_proj_WB\.instance_to_wrap\.clk_divider\.count_out\[6\]
*1738 sample_team_proj_WB\.instance_to_wrap\.clk_divider\.count_out\[7\]
*1739 sample_team_proj_WB\.instance_to_wrap\.clk_divider\.count_out\[8\]
*1740 sample_team_proj_WB\.instance_to_wrap\.clk_divider\.count_out\[9\]
*1741 sample_team_proj_WB\.instance_to_wrap\.clk_divider\.next_count\[0\]
*1742 sample_team_proj_WB\.instance_to_wrap\.clk_divider\.next_count\[10\]
*1743 sample_team_proj_WB\.instance_to_wrap\.clk_divider\.next_count\[11\]
*1744 sample_team_proj_WB\.instance_to_wrap\.clk_divider\.next_count\[12\]
*1745 sample_team_proj_WB\.instance_to_wrap\.clk_divider\.next_count\[13\]
*1746 sample_team_proj_WB\.instance_to_wrap\.clk_divider\.next_count\[14\]
*1747 sample_team_proj_WB\.instance_to_wrap\.clk_divider\.next_count\[15\]
*1748 sample_team_proj_WB\.instance_to_wrap\.clk_divider\.next_count\[16\]
*1749 sample_team_proj_WB\.instance_to_wrap\.clk_divider\.next_count\[17\]
*1750 sample_team_proj_WB\.instance_to_wrap\.clk_divider\.next_count\[18\]
*1751 sample_team_proj_WB\.instance_to_wrap\.clk_divider\.next_count\[19\]
*1752 sample_team_proj_WB\.instance_to_wrap\.clk_divider\.next_count\[1\]
*1753 sample_team_proj_WB\.instance_to_wrap\.clk_divider\.next_count\[20\]
*1754 sample_team_proj_WB\.instance_to_wrap\.clk_divider\.next_count\[21\]
*1755 sample_team_proj_WB\.instance_to_wrap\.clk_divider\.next_count\[22\]
*1756 sample_team_proj_WB\.instance_to_wrap\.clk_divider\.next_count\[23\]
*1757 sample_team_proj_WB\.instance_to_wrap\.clk_divider\.next_count\[24\]
*1758 sample_team_proj_WB\.instance_to_wrap\.clk_divider\.next_count\[25\]
*1759 sample_team_proj_WB\.instance_to_wrap\.clk_divider\.next_count\[26\]
*1760 sample_team_proj_WB\.instance_to_wrap\.clk_divider\.next_count\[27\]
*1761 sample_team_proj_WB\.instance_to_wrap\.clk_divider\.next_count\[2\]
*1762 sample_team_proj_WB\.instance_to_wrap\.clk_divider\.next_count\[3\]